*SPEF "ieee 1481-1999"
*DESIGN "counter_tlv"
*DATE "11:11:11 Fri 11 11, 1111"
*VENDOR "OpenRCX"
*PROGRAM "Parallel Extraction"
*VERSION "1.0"
*DESIGN_FLOW "NAME_SCOPE LOCAL" "PIN_CAP NONE"
*DIVIDER /
*DELIMITER :
*BUS_DELIMITER []
*T_UNIT 1 NS
*C_UNIT 1 PF
*R_UNIT 1 OHM
*L_UNIT 1 HENRY

*NAME_MAP
*1 io_in[0]
*2 io_in[10]
*3 io_in[11]
*4 io_in[12]
*5 io_in[13]
*6 io_in[14]
*7 io_in[15]
*8 io_in[16]
*9 io_in[17]
*10 io_in[18]
*11 io_in[19]
*12 io_in[1]
*13 io_in[20]
*14 io_in[21]
*15 io_in[22]
*16 io_in[23]
*17 io_in[24]
*18 io_in[25]
*19 io_in[26]
*20 io_in[27]
*21 io_in[28]
*22 io_in[29]
*23 io_in[2]
*24 io_in[30]
*25 io_in[31]
*26 io_in[32]
*27 io_in[33]
*28 io_in[34]
*29 io_in[35]
*30 io_in[36]
*31 io_in[37]
*32 io_in[3]
*33 io_in[4]
*34 io_in[5]
*35 io_in[6]
*36 io_in[7]
*37 io_in[8]
*38 io_in[9]
*39 io_oeb[0]
*40 io_oeb[10]
*41 io_oeb[11]
*42 io_oeb[12]
*43 io_oeb[13]
*44 io_oeb[14]
*45 io_oeb[15]
*46 io_oeb[16]
*47 io_oeb[17]
*48 io_oeb[18]
*49 io_oeb[19]
*50 io_oeb[1]
*51 io_oeb[20]
*52 io_oeb[21]
*53 io_oeb[22]
*54 io_oeb[23]
*55 io_oeb[24]
*56 io_oeb[25]
*57 io_oeb[26]
*58 io_oeb[27]
*59 io_oeb[28]
*60 io_oeb[29]
*61 io_oeb[2]
*62 io_oeb[30]
*63 io_oeb[31]
*64 io_oeb[32]
*65 io_oeb[33]
*66 io_oeb[34]
*67 io_oeb[35]
*68 io_oeb[36]
*69 net281
*70 io_oeb[3]
*71 io_oeb[4]
*72 io_oeb[5]
*73 io_oeb[6]
*74 io_oeb[7]
*75 io_oeb[8]
*76 io_oeb[9]
*77 io_out[0]
*78 io_out[10]
*79 io_out[11]
*80 io_out[12]
*81 io_out[13]
*82 io_out[14]
*83 io_out[15]
*84 io_out[16]
*85 io_out[17]
*86 io_out[18]
*87 io_out[19]
*88 io_out[1]
*89 io_out[20]
*90 io_out[21]
*91 io_out[22]
*92 io_out[23]
*93 io_out[24]
*94 io_out[25]
*95 io_out[26]
*96 io_out[27]
*97 io_out[28]
*98 io_out[29]
*99 io_out[2]
*100 io_out[30]
*101 io_out[31]
*102 net282
*103 net283
*104 net284
*105 net285
*106 net286
*107 net287
*108 io_out[3]
*109 io_out[4]
*110 io_out[5]
*111 io_out[6]
*112 io_out[7]
*113 io_out[8]
*114 io_out[9]
*115 net288
*116 net289
*117 net290
*118 la_data_in[0]
*119 la_data_in[100]
*120 la_data_in[101]
*121 la_data_in[102]
*122 la_data_in[103]
*123 la_data_in[104]
*124 la_data_in[105]
*125 la_data_in[106]
*126 la_data_in[107]
*127 la_data_in[108]
*128 la_data_in[109]
*129 la_data_in[10]
*130 la_data_in[110]
*131 la_data_in[111]
*132 la_data_in[112]
*133 la_data_in[113]
*134 la_data_in[114]
*135 la_data_in[115]
*136 la_data_in[116]
*137 la_data_in[117]
*138 la_data_in[118]
*139 la_data_in[119]
*140 la_data_in[11]
*141 la_data_in[120]
*142 la_data_in[121]
*143 la_data_in[122]
*144 la_data_in[123]
*145 la_data_in[124]
*146 la_data_in[125]
*147 la_data_in[126]
*148 la_data_in[127]
*149 la_data_in[12]
*150 la_data_in[13]
*151 la_data_in[14]
*152 la_data_in[15]
*153 la_data_in[16]
*154 la_data_in[17]
*155 la_data_in[18]
*156 la_data_in[19]
*157 la_data_in[1]
*158 la_data_in[20]
*159 la_data_in[21]
*160 la_data_in[22]
*161 la_data_in[23]
*162 la_data_in[24]
*163 la_data_in[25]
*164 la_data_in[26]
*165 la_data_in[27]
*166 la_data_in[28]
*167 la_data_in[29]
*168 la_data_in[2]
*169 la_data_in[30]
*170 la_data_in[31]
*171 la_data_in[32]
*172 la_data_in[33]
*173 la_data_in[34]
*174 la_data_in[35]
*175 la_data_in[36]
*176 la_data_in[37]
*177 la_data_in[38]
*178 la_data_in[39]
*179 la_data_in[3]
*180 la_data_in[40]
*181 la_data_in[41]
*182 la_data_in[42]
*183 la_data_in[43]
*184 la_data_in[44]
*185 la_data_in[45]
*186 la_data_in[46]
*187 la_data_in[47]
*188 la_data_in[48]
*189 la_data_in[49]
*190 la_data_in[4]
*191 la_data_in[50]
*192 la_data_in[51]
*193 la_data_in[52]
*194 la_data_in[53]
*195 la_data_in[54]
*196 la_data_in[55]
*197 la_data_in[56]
*198 la_data_in[57]
*199 la_data_in[58]
*200 la_data_in[59]
*201 la_data_in[5]
*202 la_data_in[60]
*203 la_data_in[61]
*204 la_data_in[62]
*205 la_data_in[63]
*206 la_data_in[64]
*207 la_data_in[65]
*208 la_data_in[66]
*209 la_data_in[67]
*210 la_data_in[68]
*211 la_data_in[69]
*212 la_data_in[6]
*213 la_data_in[70]
*214 la_data_in[71]
*215 la_data_in[72]
*216 la_data_in[73]
*217 la_data_in[74]
*218 la_data_in[75]
*219 la_data_in[76]
*220 la_data_in[77]
*221 la_data_in[78]
*222 la_data_in[79]
*223 la_data_in[7]
*224 la_data_in[80]
*225 la_data_in[81]
*226 la_data_in[82]
*227 la_data_in[83]
*228 la_data_in[84]
*229 la_data_in[85]
*230 la_data_in[86]
*231 la_data_in[87]
*232 la_data_in[88]
*233 la_data_in[89]
*234 la_data_in[8]
*235 la_data_in[90]
*236 la_data_in[91]
*237 la_data_in[92]
*238 la_data_in[93]
*239 la_data_in[94]
*240 la_data_in[95]
*241 la_data_in[96]
*242 la_data_in[97]
*243 la_data_in[98]
*244 la_data_in[99]
*245 la_data_in[9]
*246 la_data_out[0]
*247 net359
*248 net360
*249 net361
*250 net362
*251 net363
*252 net364
*253 net365
*254 net366
*255 net367
*256 net368
*257 la_data_out[10]
*258 net369
*259 net370
*260 net371
*261 net372
*262 net373
*263 net374
*264 net375
*265 net376
*266 net377
*267 net378
*268 la_data_out[11]
*269 net379
*270 net380
*271 net381
*272 net382
*273 net383
*274 net384
*275 net385
*276 net386
*277 la_data_out[12]
*278 la_data_out[13]
*279 la_data_out[14]
*280 la_data_out[15]
*281 la_data_out[16]
*282 la_data_out[17]
*283 la_data_out[18]
*284 la_data_out[19]
*285 la_data_out[1]
*286 la_data_out[20]
*287 la_data_out[21]
*288 la_data_out[22]
*289 la_data_out[23]
*290 la_data_out[24]
*291 la_data_out[25]
*292 la_data_out[26]
*293 la_data_out[27]
*294 la_data_out[28]
*295 la_data_out[29]
*296 la_data_out[2]
*297 la_data_out[30]
*298 la_data_out[31]
*299 net291
*300 net292
*301 net293
*302 net294
*303 net295
*304 net296
*305 net297
*306 net298
*307 la_data_out[3]
*308 net299
*309 net300
*310 net301
*311 net302
*312 net303
*313 net304
*314 net305
*315 net306
*316 net307
*317 net308
*318 la_data_out[4]
*319 net309
*320 net310
*321 net311
*322 net312
*323 net313
*324 net314
*325 net315
*326 net316
*327 net317
*328 net318
*329 la_data_out[5]
*330 net319
*331 net320
*332 net321
*333 net322
*334 net323
*335 net324
*336 net325
*337 net326
*338 net327
*339 net328
*340 la_data_out[6]
*341 net329
*342 net330
*343 net331
*344 net332
*345 net333
*346 net334
*347 net335
*348 net336
*349 net337
*350 net338
*351 la_data_out[7]
*352 net339
*353 net340
*354 net341
*355 net342
*356 net343
*357 net344
*358 net345
*359 net346
*360 net347
*361 net348
*362 la_data_out[8]
*363 net349
*364 net350
*365 net351
*366 net352
*367 net353
*368 net354
*369 net355
*370 net356
*371 net357
*372 net358
*373 la_data_out[9]
*374 la_oenb[0]
*375 la_oenb[100]
*376 la_oenb[101]
*377 la_oenb[102]
*378 la_oenb[103]
*379 la_oenb[104]
*380 la_oenb[105]
*381 la_oenb[106]
*382 la_oenb[107]
*383 la_oenb[108]
*384 la_oenb[109]
*385 la_oenb[10]
*386 la_oenb[110]
*387 la_oenb[111]
*388 la_oenb[112]
*389 la_oenb[113]
*390 la_oenb[114]
*391 la_oenb[115]
*392 la_oenb[116]
*393 la_oenb[117]
*394 la_oenb[118]
*395 la_oenb[119]
*396 la_oenb[11]
*397 la_oenb[120]
*398 la_oenb[121]
*399 la_oenb[122]
*400 la_oenb[123]
*401 la_oenb[124]
*402 la_oenb[125]
*403 la_oenb[126]
*404 la_oenb[127]
*405 la_oenb[12]
*406 la_oenb[13]
*407 la_oenb[14]
*408 la_oenb[15]
*409 la_oenb[16]
*410 la_oenb[17]
*411 la_oenb[18]
*412 la_oenb[19]
*413 la_oenb[1]
*414 la_oenb[20]
*415 la_oenb[21]
*416 la_oenb[22]
*417 la_oenb[23]
*418 la_oenb[24]
*419 la_oenb[25]
*420 la_oenb[26]
*421 la_oenb[27]
*422 la_oenb[28]
*423 la_oenb[29]
*424 la_oenb[2]
*425 la_oenb[30]
*426 la_oenb[31]
*427 la_oenb[32]
*428 la_oenb[33]
*429 la_oenb[34]
*430 la_oenb[35]
*431 la_oenb[36]
*432 la_oenb[37]
*433 la_oenb[38]
*434 la_oenb[39]
*435 la_oenb[3]
*436 la_oenb[40]
*437 la_oenb[41]
*438 la_oenb[42]
*439 la_oenb[43]
*440 la_oenb[44]
*441 la_oenb[45]
*442 la_oenb[46]
*443 la_oenb[47]
*444 la_oenb[48]
*445 la_oenb[49]
*446 la_oenb[4]
*447 la_oenb[50]
*448 la_oenb[51]
*449 la_oenb[52]
*450 la_oenb[53]
*451 la_oenb[54]
*452 la_oenb[55]
*453 la_oenb[56]
*454 la_oenb[57]
*455 la_oenb[58]
*456 la_oenb[59]
*457 la_oenb[5]
*458 la_oenb[60]
*459 la_oenb[61]
*460 la_oenb[62]
*461 la_oenb[63]
*462 la_oenb[64]
*463 la_oenb[65]
*464 la_oenb[66]
*465 la_oenb[67]
*466 la_oenb[68]
*467 la_oenb[69]
*468 la_oenb[6]
*469 la_oenb[70]
*470 la_oenb[71]
*471 la_oenb[72]
*472 la_oenb[73]
*473 la_oenb[74]
*474 la_oenb[75]
*475 la_oenb[76]
*476 la_oenb[77]
*477 la_oenb[78]
*478 la_oenb[79]
*479 la_oenb[7]
*480 la_oenb[80]
*481 la_oenb[81]
*482 la_oenb[82]
*483 la_oenb[83]
*484 la_oenb[84]
*485 la_oenb[85]
*486 la_oenb[86]
*487 la_oenb[87]
*488 la_oenb[88]
*489 la_oenb[89]
*490 la_oenb[8]
*491 la_oenb[90]
*492 la_oenb[91]
*493 la_oenb[92]
*494 la_oenb[93]
*495 la_oenb[94]
*496 la_oenb[95]
*497 la_oenb[96]
*498 la_oenb[97]
*499 la_oenb[98]
*500 la_oenb[99]
*501 la_oenb[9]
*504 wb_clk_i
*505 wb_rst_i
*506 wbs_ack_o
*507 wbs_adr_i[0]
*508 wbs_adr_i[10]
*509 wbs_adr_i[11]
*510 wbs_adr_i[12]
*511 wbs_adr_i[13]
*512 wbs_adr_i[14]
*513 wbs_adr_i[15]
*514 wbs_adr_i[16]
*515 wbs_adr_i[17]
*516 wbs_adr_i[18]
*517 wbs_adr_i[19]
*518 wbs_adr_i[1]
*519 wbs_adr_i[20]
*520 wbs_adr_i[21]
*521 wbs_adr_i[22]
*522 wbs_adr_i[23]
*523 wbs_adr_i[24]
*524 wbs_adr_i[25]
*525 wbs_adr_i[26]
*526 wbs_adr_i[27]
*527 wbs_adr_i[28]
*528 wbs_adr_i[29]
*529 wbs_adr_i[2]
*530 wbs_adr_i[30]
*531 wbs_adr_i[31]
*532 wbs_adr_i[3]
*533 wbs_adr_i[4]
*534 wbs_adr_i[5]
*535 wbs_adr_i[6]
*536 wbs_adr_i[7]
*537 wbs_adr_i[8]
*538 wbs_adr_i[9]
*539 wbs_cyc_i
*540 wbs_dat_i[0]
*541 wbs_dat_i[10]
*542 wbs_dat_i[11]
*543 wbs_dat_i[12]
*544 wbs_dat_i[13]
*545 wbs_dat_i[14]
*546 wbs_dat_i[15]
*547 wbs_dat_i[16]
*548 wbs_dat_i[17]
*549 wbs_dat_i[18]
*550 wbs_dat_i[19]
*551 wbs_dat_i[1]
*552 wbs_dat_i[20]
*553 wbs_dat_i[21]
*554 wbs_dat_i[22]
*555 wbs_dat_i[23]
*556 wbs_dat_i[24]
*557 wbs_dat_i[25]
*558 wbs_dat_i[26]
*559 wbs_dat_i[27]
*560 wbs_dat_i[28]
*561 wbs_dat_i[29]
*562 wbs_dat_i[2]
*563 wbs_dat_i[30]
*564 wbs_dat_i[31]
*565 wbs_dat_i[3]
*566 wbs_dat_i[4]
*567 wbs_dat_i[5]
*568 wbs_dat_i[6]
*569 wbs_dat_i[7]
*570 wbs_dat_i[8]
*571 wbs_dat_i[9]
*572 wbs_dat_o[0]
*573 wbs_dat_o[10]
*574 wbs_dat_o[11]
*575 wbs_dat_o[12]
*576 wbs_dat_o[13]
*577 wbs_dat_o[14]
*578 wbs_dat_o[15]
*579 wbs_dat_o[16]
*580 wbs_dat_o[17]
*581 wbs_dat_o[18]
*582 wbs_dat_o[19]
*583 wbs_dat_o[1]
*584 wbs_dat_o[20]
*585 wbs_dat_o[21]
*586 wbs_dat_o[22]
*587 wbs_dat_o[23]
*588 wbs_dat_o[24]
*589 wbs_dat_o[25]
*590 wbs_dat_o[26]
*591 wbs_dat_o[27]
*592 wbs_dat_o[28]
*593 wbs_dat_o[29]
*594 wbs_dat_o[2]
*595 wbs_dat_o[30]
*596 wbs_dat_o[31]
*597 wbs_dat_o[3]
*598 wbs_dat_o[4]
*599 wbs_dat_o[5]
*600 wbs_dat_o[6]
*601 wbs_dat_o[7]
*602 wbs_dat_o[8]
*603 wbs_dat_o[9]
*604 wbs_sel_i[0]
*605 wbs_sel_i[1]
*606 wbs_sel_i[2]
*607 wbs_sel_i[3]
*608 wbs_stb_i
*609 wbs_we_i
*610 L0_ready_a1
*611 _000_
*612 _001_
*613 _002_
*614 _003_
*615 _004_
*616 _005_
*617 _006_
*618 _007_
*619 _008_
*620 _009_
*621 _010_
*622 _011_
*623 _012_
*624 _013_
*625 _014_
*626 _015_
*627 _016_
*628 _017_
*629 _018_
*630 _019_
*631 _020_
*632 _021_
*633 _022_
*634 _023_
*635 _024_
*636 _025_
*637 _026_
*638 _027_
*639 _028_
*640 _029_
*641 _030_
*642 _031_
*643 _032_
*644 _033_
*645 _034_
*646 _035_
*647 _036_
*648 _037_
*649 _038_
*650 _039_
*651 _040_
*652 _041_
*653 _042_
*654 _043_
*655 _044_
*656 _045_
*657 _046_
*658 _047_
*659 _048_
*660 _049_
*661 _050_
*662 _051_
*663 _052_
*664 _053_
*665 _054_
*666 _055_
*667 _056_
*668 _057_
*669 _058_
*670 _059_
*671 _060_
*672 _061_
*673 _062_
*674 _063_
*675 _064_
*676 _065_
*677 _066_
*678 _067_
*679 _068_
*680 _069_
*681 _070_
*682 _071_
*683 _072_
*684 _073_
*685 _074_
*686 _075_
*687 _076_
*688 _077_
*689 _078_
*690 _079_
*691 _080_
*692 _081_
*693 _082_
*694 _083_
*695 _084_
*696 _085_
*697 _086_
*698 _087_
*699 _088_
*700 _089_
*701 _090_
*702 _091_
*703 _092_
*704 _093_
*705 _094_
*706 _095_
*707 _096_
*708 _097_
*709 _098_
*710 _099_
*711 _100_
*712 _101_
*713 _102_
*714 _103_
*715 _104_
*716 _105_
*717 _106_
*718 _107_
*719 _108_
*720 _109_
*721 _110_
*722 _111_
*723 _112_
*724 _113_
*725 _114_
*726 _115_
*727 _116_
*728 _117_
*729 _118_
*730 _119_
*731 _120_
*732 _121_
*733 _122_
*734 _123_
*735 _124_
*736 _125_
*737 _126_
*738 _127_
*739 _128_
*740 _129_
*741 _130_
*742 _131_
*743 _132_
*744 _133_
*745 _134_
*746 _135_
*747 _136_
*748 _137_
*749 _138_
*750 _139_
*751 _140_
*752 _141_
*753 _142_
*754 _143_
*755 _144_
*756 _145_
*757 _146_
*758 _147_
*759 _148_
*760 _149_
*761 _150_
*762 _151_
*763 _152_
*764 _153_
*765 _154_
*766 _155_
*767 _156_
*768 _157_
*769 _158_
*770 _159_
*771 _160_
*772 _161_
*773 _162_
*774 _163_
*775 _164_
*776 _165_
*777 _166_
*778 _167_
*779 _168_
*780 _169_
*781 _170_
*782 _171_
*783 _172_
*784 _173_
*785 _174_
*786 _175_
*787 _176_
*788 _177_
*789 _178_
*790 _179_
*791 _180_
*792 _181_
*793 _182_
*794 _183_
*795 _184_
*796 _185_
*797 _186_
*798 _187_
*799 _188_
*800 _189_
*801 _190_
*802 _191_
*803 _192_
*804 _193_
*805 _194_
*806 _195_
*807 _196_
*808 _197_
*809 _198_
*810 _199_
*811 _200_
*812 _201_
*813 _202_
*814 _203_
*815 _204_
*816 _205_
*817 _206_
*818 _207_
*819 _208_
*820 _209_
*821 _210_
*822 _211_
*823 _212_
*824 _213_
*825 _214_
*826 _215_
*827 _216_
*828 _217_
*829 _218_
*830 _219_
*831 _220_
*832 _221_
*833 _222_
*834 _223_
*835 _224_
*836 _225_
*837 _226_
*838 _227_
*839 _228_
*840 _229_
*841 _230_
*842 _231_
*843 _232_
*844 _233_
*845 _234_
*846 _235_
*847 _236_
*848 _237_
*849 _238_
*850 _239_
*851 _240_
*852 _241_
*853 _242_
*854 _243_
*855 _244_
*856 _245_
*857 _246_
*858 _247_
*859 _248_
*860 _249_
*861 _250_
*862 _251_
*863 _252_
*864 _253_
*865 _254_
*866 _255_
*867 _256_
*868 _257_
*869 _258_
*870 _259_
*871 _260_
*872 _261_
*873 _262_
*874 _263_
*875 _264_
*876 _265_
*877 _266_
*878 _267_
*879 _268_
*880 _269_
*881 _270_
*882 _271_
*883 _272_
*884 _273_
*885 _274_
*886 _275_
*887 _276_
*888 _277_
*889 _278_
*890 _279_
*891 _280_
*892 _281_
*893 _282_
*894 _283_
*895 _284_
*896 _285_
*897 _286_
*898 _287_
*899 _288_
*900 _289_
*901 _290_
*902 _291_
*903 _292_
*904 _293_
*905 _294_
*906 _295_
*907 _296_
*908 _297_
*909 _298_
*910 _299_
*911 _300_
*912 _301_
*913 _302_
*914 _303_
*915 _304_
*916 _305_
*917 _306_
*918 _307_
*919 _308_
*920 _309_
*921 _310_
*922 _311_
*923 _312_
*924 _313_
*925 _314_
*926 _315_
*927 _316_
*928 _317_
*929 _318_
*930 _319_
*931 _320_
*932 _321_
*933 _322_
*934 _323_
*935 _324_
*936 _325_
*937 _326_
*938 _327_
*939 _328_
*940 _329_
*941 _330_
*942 _331_
*943 _332_
*944 _333_
*945 _334_
*946 _335_
*947 _336_
*948 _337_
*949 _338_
*950 _339_
*951 _340_
*952 _341_
*953 _342_
*954 _343_
*955 _344_
*956 _345_
*957 _346_
*958 clk
*959 clknet_0_clk
*960 clknet_1_0_0_clk
*961 clknet_1_0_1_clk
*962 clknet_1_1_0_clk
*963 clknet_1_1_1_clk
*964 clknet_2_0_0_clk
*965 clknet_2_1_0_clk
*966 clknet_2_2_0_clk
*967 clknet_2_3_0_clk
*968 net1
*969 net10
*970 net100
*971 net101
*972 net102
*973 net103
*974 net104
*975 net105
*976 net106
*977 net107
*978 net108
*979 net109
*980 net11
*981 net110
*982 net111
*983 net112
*984 net113
*985 net114
*986 net115
*987 net116
*988 net117
*989 net118
*990 net119
*991 net12
*992 net120
*993 net121
*994 net122
*995 net123
*996 net124
*997 net125
*998 net126
*999 net127
*1000 net128
*1001 net129
*1002 net13
*1003 net130
*1004 net131
*1005 net132
*1006 net133
*1007 net134
*1008 net135
*1009 net136
*1010 net137
*1011 net138
*1012 net139
*1013 net14
*1014 net140
*1015 net141
*1016 net142
*1017 net143
*1018 net144
*1019 net145
*1020 net146
*1021 net147
*1022 net148
*1023 net149
*1024 net15
*1025 net150
*1026 net151
*1027 net152
*1028 net153
*1029 net154
*1030 net155
*1031 net156
*1032 net157
*1033 net158
*1034 net159
*1035 net16
*1036 net160
*1037 net161
*1038 net162
*1039 net163
*1040 net164
*1041 net165
*1042 net166
*1043 net167
*1044 net168
*1045 net169
*1046 net17
*1047 net170
*1048 net171
*1049 net172
*1050 net173
*1051 net174
*1052 net175
*1053 net176
*1054 net177
*1055 net178
*1056 net179
*1057 net18
*1058 net180
*1059 net181
*1060 net182
*1061 net183
*1062 net184
*1063 net185
*1064 net186
*1065 net187
*1066 net188
*1067 net189
*1068 net19
*1069 net190
*1070 net191
*1071 net192
*1072 net193
*1073 net194
*1074 net195
*1075 net196
*1076 net197
*1077 net198
*1078 net199
*1079 net2
*1080 net20
*1081 net200
*1082 net201
*1083 net202
*1084 net203
*1085 net204
*1086 net205
*1087 net206
*1088 net207
*1089 net208
*1090 net209
*1091 net21
*1092 net210
*1093 net211
*1094 net212
*1095 net213
*1096 net214
*1097 net215
*1098 net216
*1099 net217
*1100 net218
*1101 net219
*1102 net22
*1103 net220
*1104 net221
*1105 net222
*1106 net223
*1107 net224
*1108 net225
*1109 net226
*1110 net227
*1111 net228
*1112 net229
*1113 net23
*1114 net230
*1115 net231
*1116 net232
*1117 net233
*1118 net234
*1119 net235
*1120 net236
*1121 net237
*1122 net238
*1123 net239
*1124 net24
*1125 net240
*1126 net241
*1127 net242
*1128 net243
*1129 net244
*1130 net245
*1131 net246
*1132 net247
*1133 net248
*1134 net249
*1135 net25
*1136 net250
*1137 net251
*1138 net252
*1139 net253
*1140 net254
*1141 net255
*1142 net256
*1143 net257
*1144 net258
*1145 net259
*1146 net26
*1147 net260
*1148 net261
*1149 net262
*1150 net263
*1151 net264
*1152 net265
*1153 net266
*1154 net267
*1155 net268
*1156 net269
*1157 net27
*1158 net270
*1159 net271
*1160 net272
*1161 net273
*1162 net274
*1163 net275
*1164 net276
*1165 net277
*1166 net278
*1167 net279
*1168 net28
*1169 net280
*1170 net29
*1171 net3
*1172 net30
*1173 net31
*1174 net32
*1175 net33
*1176 net34
*1177 net35
*1178 net36
*1179 net37
*1180 net38
*1181 net39
*1182 net4
*1183 net40
*1184 net41
*1185 net42
*1186 net43
*1187 net44
*1188 net45
*1189 net46
*1190 net47
*1191 net48
*1192 net49
*1193 net5
*1194 net50
*1195 net51
*1196 net52
*1197 net53
*1198 net54
*1199 net55
*1200 net56
*1201 net57
*1202 net58
*1203 net59
*1204 net6
*1205 net60
*1206 net61
*1207 net62
*1208 net63
*1209 net64
*1210 net65
*1211 net66
*1212 net67
*1213 net68
*1214 net69
*1215 net7
*1216 net70
*1217 net71
*1218 net72
*1219 net73
*1220 net74
*1221 net75
*1222 net76
*1223 net77
*1224 net78
*1225 net79
*1226 net8
*1227 net80
*1228 net81
*1229 net82
*1230 net83
*1231 net84
*1232 net85
*1233 net86
*1234 net87
*1235 net88
*1236 net89
*1237 net9
*1238 net90
*1239 net91
*1240 net92
*1241 net93
*1242 net94
*1243 net95
*1244 net96
*1245 net97
*1246 net98
*1247 net99
*1248 ANTENNA__348__B
*1249 ANTENNA__350__A
*1250 ANTENNA__351__A
*1251 ANTENNA__352__A
*1252 ANTENNA__354__B
*1253 ANTENNA__356__A
*1254 ANTENNA__357__A
*1255 ANTENNA__357__B
*1256 ANTENNA__359__A
*1257 ANTENNA__360__A
*1258 ANTENNA__361__A
*1259 ANTENNA__362__B
*1260 ANTENNA__363__A
*1261 ANTENNA__364__A
*1262 ANTENNA__364__B
*1263 ANTENNA__366__A
*1264 ANTENNA__366__B
*1265 ANTENNA__368__A
*1266 ANTENNA__368__B
*1267 ANTENNA__370__A
*1268 ANTENNA__371__A
*1269 ANTENNA__371__B
*1270 ANTENNA__373__A
*1271 ANTENNA__373__B
*1272 ANTENNA__375__B
*1273 ANTENNA__377__A
*1274 ANTENNA__377__B
*1275 ANTENNA__378__A
*1276 ANTENNA__379__A
*1277 ANTENNA__379__B
*1278 ANTENNA__381__A
*1279 ANTENNA__382__A
*1280 ANTENNA__383__A
*1281 ANTENNA__385__A
*1282 ANTENNA__387__A
*1283 ANTENNA__389__A
*1284 ANTENNA__391__A
*1285 ANTENNA__392__A
*1286 ANTENNA__394__A
*1287 ANTENNA__395__A
*1288 ANTENNA__397__A
*1289 ANTENNA__398__A
*1290 ANTENNA__400__A
*1291 ANTENNA__402__A
*1292 ANTENNA__404__A
*1293 ANTENNA__405__A
*1294 ANTENNA__407__A
*1295 ANTENNA__408__A
*1296 ANTENNA__408__B
*1297 ANTENNA__410__A
*1298 ANTENNA__410__B
*1299 ANTENNA__412__A
*1300 ANTENNA__413__A
*1301 ANTENNA__413__B
*1302 ANTENNA__415__B
*1303 ANTENNA__416__A
*1304 ANTENNA__417__B
*1305 ANTENNA__418__A
*1306 ANTENNA__419__A
*1307 ANTENNA__420__A
*1308 ANTENNA__422__A
*1309 ANTENNA__424__A
*1310 ANTENNA__425__A
*1311 ANTENNA__427__A
*1312 ANTENNA__428__A
*1313 ANTENNA__430__A
*1314 ANTENNA__432__A
*1315 ANTENNA__433__A
*1316 ANTENNA__434__A
*1317 ANTENNA__434__B
*1318 ANTENNA__436__A0
*1319 ANTENNA__436__A1
*1320 ANTENNA__436__S
*1321 ANTENNA__439__A1
*1322 ANTENNA__440__A
*1323 ANTENNA__443__A
*1324 ANTENNA__444__A
*1325 ANTENNA__444__B
*1326 ANTENNA__444__C
*1327 ANTENNA__444__D
*1328 ANTENNA__445__A
*1329 ANTENNA__445__B
*1330 ANTENNA__446__A
*1331 ANTENNA__446__B
*1332 ANTENNA__447__A
*1333 ANTENNA__447__C
*1334 ANTENNA__448__A
*1335 ANTENNA__448__B
*1336 ANTENNA__448__C
*1337 ANTENNA__448__D
*1338 ANTENNA__449__A
*1339 ANTENNA__449__C
*1340 ANTENNA__450__A
*1341 ANTENNA__450__B
*1342 ANTENNA__450__C
*1343 ANTENNA__451__A
*1344 ANTENNA__451__B
*1345 ANTENNA__451__C
*1346 ANTENNA__453__A
*1347 ANTENNA__453__C
*1348 ANTENNA__455__A
*1349 ANTENNA__461__A
*1350 ANTENNA__461__B
*1351 ANTENNA__461__C
*1352 ANTENNA__461__D
*1353 ANTENNA__462__C
*1354 ANTENNA__462__D
*1355 ANTENNA__465__B1
*1356 ANTENNA__466__A
*1357 ANTENNA__467__A
*1358 ANTENNA__467__B
*1359 ANTENNA__468__A
*1360 ANTENNA__469__B
*1361 ANTENNA__470__A
*1362 ANTENNA__471__A
*1363 ANTENNA__472__B
*1364 ANTENNA__475__A
*1365 ANTENNA__476__A1
*1366 ANTENNA__476__B1
*1367 ANTENNA__477__A1
*1368 ANTENNA__477__B1
*1369 ANTENNA__479__A
*1370 ANTENNA__479__B
*1371 ANTENNA__480__B
*1372 ANTENNA__482__B1
*1373 ANTENNA__485__A
*1374 ANTENNA__486__B
*1375 ANTENNA__487__A
*1376 ANTENNA__488__B1
*1377 ANTENNA__489__A1
*1378 ANTENNA__489__B1
*1379 ANTENNA__490__A
*1380 ANTENNA__490__B
*1381 ANTENNA__491__B1
*1382 ANTENNA__492__A
*1383 ANTENNA__492__B
*1384 ANTENNA__492__C
*1385 ANTENNA__493__A
*1386 ANTENNA__493__B
*1387 ANTENNA__494__A
*1388 ANTENNA__495__B1
*1389 ANTENNA__496__A1
*1390 ANTENNA__498__A
*1391 ANTENNA__499__A
*1392 ANTENNA__500__A0
*1393 ANTENNA__500__A1
*1394 ANTENNA__500__S
*1395 ANTENNA__501__B1
*1396 ANTENNA__501__B2
*1397 ANTENNA__502__A
*1398 ANTENNA__503__A
*1399 ANTENNA__504__A2
*1400 ANTENNA__504__B1
*1401 ANTENNA__505__A
*1402 ANTENNA__505__B
*1403 ANTENNA__507__A1
*1404 ANTENNA__507__A2
*1405 ANTENNA__507__B1
*1406 ANTENNA__508__A
*1407 ANTENNA__508__B
*1408 ANTENNA__509__C
*1409 ANTENNA__511__A0
*1410 ANTENNA__511__A1
*1411 ANTENNA__511__S
*1412 ANTENNA__512__B1
*1413 ANTENNA__512__B2
*1414 ANTENNA__513__B1
*1415 ANTENNA__514__A
*1416 ANTENNA__515__A
*1417 ANTENNA__516__A
*1418 ANTENNA__517__B
*1419 ANTENNA__518__A1
*1420 ANTENNA__518__C1
*1421 ANTENNA__519__B1
*1422 ANTENNA__520__A1_N
*1423 ANTENNA__520__A2_N
*1424 ANTENNA__520__B2
*1425 ANTENNA__522__A1
*1426 ANTENNA__522__B1
*1427 ANTENNA__523__A1
*1428 ANTENNA__523__A2
*1429 ANTENNA__523__B1
*1430 ANTENNA__524__B
*1431 ANTENNA__525__C1
*1432 ANTENNA__526__B1
*1433 ANTENNA__527__A1_N
*1434 ANTENNA__527__A2_N
*1435 ANTENNA__527__B2
*1436 ANTENNA__529__A
*1437 ANTENNA__529__B
*1438 ANTENNA__529__C
*1439 ANTENNA__530__A1
*1440 ANTENNA__530__A2
*1441 ANTENNA__530__B1
*1442 ANTENNA__531__B
*1443 ANTENNA__532__A1
*1444 ANTENNA__532__C1
*1445 ANTENNA__533__B1
*1446 ANTENNA__534__A1_N
*1447 ANTENNA__534__A2_N
*1448 ANTENNA__534__B1
*1449 ANTENNA__535__A
*1450 ANTENNA__536__A1
*1451 ANTENNA__536__B1
*1452 ANTENNA__537__A1
*1453 ANTENNA__539__A0
*1454 ANTENNA__539__S
*1455 ANTENNA__540__B1
*1456 ANTENNA__540__B2
*1457 ANTENNA__541__B1
*1458 ANTENNA__543__A
*1459 ANTENNA__543__B
*1460 ANTENNA__545__A
*1461 ANTENNA__546__A
*1462 ANTENNA__546__B
*1463 ANTENNA__548__A1
*1464 ANTENNA__552__A1
*1465 ANTENNA__552__B1
*1466 ANTENNA__553__B
*1467 ANTENNA__554__A2
*1468 ANTENNA__554__A3
*1469 ANTENNA__554__B1
*1470 ANTENNA__555__A1_N
*1471 ANTENNA__555__A2_N
*1472 ANTENNA__556__A
*1473 ANTENNA__558__A1
*1474 ANTENNA__558__B1
*1475 ANTENNA__559__A1
*1476 ANTENNA__561__A1
*1477 ANTENNA__561__A3
*1478 ANTENNA__561__B1
*1479 ANTENNA__562__A1
*1480 ANTENNA__563__A1
*1481 ANTENNA__563__A2
*1482 ANTENNA__565__A
*1483 ANTENNA__565__B
*1484 ANTENNA__566__A1
*1485 ANTENNA__566__B1
*1486 ANTENNA__567__B
*1487 ANTENNA__569__A3
*1488 ANTENNA__569__B1
*1489 ANTENNA__570__A1
*1490 ANTENNA__571__A1
*1491 ANTENNA__571__A2
*1492 ANTENNA__574__A
*1493 ANTENNA__575__B
*1494 ANTENNA__576__A1
*1495 ANTENNA__578__A
*1496 ANTENNA__579__A1
*1497 ANTENNA__579__S
*1498 ANTENNA__580__B1
*1499 ANTENNA__580__B2
*1500 ANTENNA__581__B1
*1501 ANTENNA__582__A1
*1502 ANTENNA__582__B1
*1503 ANTENNA__583__A1
*1504 ANTENNA__585__A3
*1505 ANTENNA__585__B1
*1506 ANTENNA__586__A1
*1507 ANTENNA__587__A1
*1508 ANTENNA__587__A2
*1509 ANTENNA__589__A
*1510 ANTENNA__589__B
*1511 ANTENNA__590__A1
*1512 ANTENNA__590__B1
*1513 ANTENNA__591__B
*1514 ANTENNA__593__A
*1515 ANTENNA__594__A3
*1516 ANTENNA__594__B1
*1517 ANTENNA__595__A1
*1518 ANTENNA__595__A2
*1519 ANTENNA__596__A1
*1520 ANTENNA__596__A2
*1521 ANTENNA__599__A
*1522 ANTENNA__600__A
*1523 ANTENNA__600__B
*1524 ANTENNA__601__A3
*1525 ANTENNA__601__B1
*1526 ANTENNA__602__A1
*1527 ANTENNA__603__A1_N
*1528 ANTENNA__603__B1
*1529 ANTENNA__605__B
*1530 ANTENNA__606__A1
*1531 ANTENNA__606__A2
*1532 ANTENNA__608__A0
*1533 ANTENNA__608__A1
*1534 ANTENNA__608__S
*1535 ANTENNA__609__B1
*1536 ANTENNA__609__B2
*1537 ANTENNA__610__A2
*1538 ANTENNA__610__B1
*1539 ANTENNA__612__B
*1540 ANTENNA__617__B
*1541 ANTENNA__618__A1
*1542 ANTENNA__618__A2
*1543 ANTENNA__618__B1
*1544 ANTENNA__619__A1
*1545 ANTENNA__619__A2
*1546 ANTENNA__620__A
*1547 ANTENNA__621__B1
*1548 ANTENNA__622__B
*1549 ANTENNA__624__B
*1550 ANTENNA__625__A2
*1551 ANTENNA__625__B1
*1552 ANTENNA__626__A
*1553 ANTENNA__627__A
*1554 ANTENNA__628__B
*1555 ANTENNA__628__C
*1556 ANTENNA__629__A1
*1557 ANTENNA__629__A2
*1558 ANTENNA__630__B1
*1559 ANTENNA__631__A
*1560 ANTENNA__632__A
*1561 ANTENNA__633__A_N
*1562 ANTENNA__633__B
*1563 ANTENNA__634__A
*1564 ANTENNA__635__A
*1565 ANTENNA__636__A0
*1566 ANTENNA__637__A1
*1567 ANTENNA__637__B1
*1568 ANTENNA__637__B2
*1569 ANTENNA__638__A2
*1570 ANTENNA__638__B1
*1571 ANTENNA__639__A
*1572 ANTENNA__640__A
*1573 ANTENNA__641__A
*1574 ANTENNA__641__B
*1575 ANTENNA__642__A1
*1576 ANTENNA__642__A2
*1577 ANTENNA__642__B1_N
*1578 ANTENNA__643__A2
*1579 ANTENNA__643__A3
*1580 ANTENNA__644__A
*1581 ANTENNA__645__A
*1582 ANTENNA__645__B
*1583 ANTENNA__645__C
*1584 ANTENNA__646__A1
*1585 ANTENNA__646__A2
*1586 ANTENNA__647__B1
*1587 ANTENNA__648__A
*1588 ANTENNA__648__B
*1589 ANTENNA__648__C
*1590 ANTENNA__649__B
*1591 ANTENNA__650__A1
*1592 ANTENNA__651__A
*1593 ANTENNA__652__A0
*1594 ANTENNA__653__A1
*1595 ANTENNA__653__B1
*1596 ANTENNA__653__B2
*1597 ANTENNA__654__A2
*1598 ANTENNA__654__B1
*1599 ANTENNA__655__B
*1600 ANTENNA__656__A1
*1601 ANTENNA__657__A
*1602 ANTENNA__657__B
*1603 ANTENNA__658__A0
*1604 ANTENNA__659__A1
*1605 ANTENNA__659__B1
*1606 ANTENNA__659__B2
*1607 ANTENNA__660__A
*1608 ANTENNA__661__B1
*1609 ANTENNA__662__B
*1610 ANTENNA__664__A
*1611 ANTENNA__665__A0
*1612 ANTENNA__666__A1
*1613 ANTENNA__666__B1
*1614 ANTENNA__666__B2
*1615 ANTENNA__667__A2
*1616 ANTENNA__667__B1
*1617 ANTENNA__668__A1
*1618 ANTENNA__668__B1
*1619 ANTENNA__669__A1
*1620 ANTENNA__670__A
*1621 ANTENNA__670__B
*1622 ANTENNA__671__A0
*1623 ANTENNA__672__A1
*1624 ANTENNA__672__B1
*1625 ANTENNA__672__B2
*1626 ANTENNA__673__B1
*1627 ANTENNA__674__B
*1628 ANTENNA__677__A1_N
*1629 ANTENNA__677__B1
*1630 ANTENNA__678__A1
*1631 ANTENNA__678__B1
*1632 ANTENNA__679__A
*1633 ANTENNA__680__A
*1634 ANTENNA__681__B
*1635 ANTENNA__683__A0
*1636 ANTENNA__684__B1
*1637 ANTENNA__684__B2
*1638 ANTENNA__685__A2
*1639 ANTENNA__685__B1
*1640 ANTENNA__686__A
*1641 ANTENNA__686__B
*1642 ANTENNA__686__C
*1643 ANTENNA__687__A1
*1644 ANTENNA__687__A2
*1645 ANTENNA__688__B
*1646 ANTENNA__689__B
*1647 ANTENNA__691__A2
*1648 ANTENNA__691__B1
*1649 ANTENNA__692__A1
*1650 ANTENNA__692__A3
*1651 ANTENNA__693__A
*1652 ANTENNA__693__B
*1653 ANTENNA__694__B1
*1654 ANTENNA__696__A
*1655 ANTENNA__697__B
*1656 ANTENNA__699__A0
*1657 ANTENNA__700__A1
*1658 ANTENNA__700__B1
*1659 ANTENNA__700__B2
*1660 ANTENNA__701__A2
*1661 ANTENNA__701__B1
*1662 ANTENNA__702__A
*1663 ANTENNA__704__B
*1664 ANTENNA__705__A2
*1665 ANTENNA__705__B1
*1666 ANTENNA__707__A1
*1667 ANTENNA__708__A
*1668 ANTENNA__710__A1
*1669 ANTENNA__710__B1
*1670 ANTENNA__711__B
*1671 ANTENNA__712__B
*1672 ANTENNA__713__A2
*1673 ANTENNA__713__A3
*1674 ANTENNA__713__B1
*1675 ANTENNA__715__B1
*1676 ANTENNA__716__A
*1677 ANTENNA__717__A
*1678 ANTENNA__718__B
*1679 ANTENNA__719__B
*1680 ANTENNA__720__A2
*1681 ANTENNA__720__A3
*1682 ANTENNA__720__B1
*1683 ANTENNA__722__B1
*1684 ANTENNA__723__A
*1685 ANTENNA__723__B
*1686 ANTENNA__724__C1
*1687 ANTENNA__725__A
*1688 ANTENNA__726__B
*1689 ANTENNA__727__A2
*1690 ANTENNA__727__B1
*1691 ANTENNA__728__B1
*1692 ANTENNA__729__CLK
*1693 ANTENNA__730__CLK
*1694 ANTENNA__731__CLK
*1695 ANTENNA__732__CLK
*1696 ANTENNA__733__CLK
*1697 ANTENNA__734__CLK
*1698 ANTENNA__735__CLK
*1699 ANTENNA__736__CLK
*1700 ANTENNA__737__CLK
*1701 ANTENNA__738__CLK
*1702 ANTENNA__739__CLK
*1703 ANTENNA__740__CLK
*1704 ANTENNA__741__CLK
*1705 ANTENNA__742__CLK
*1706 ANTENNA__743__CLK
*1707 ANTENNA__744__CLK
*1708 ANTENNA__745__CLK
*1709 ANTENNA__746__CLK
*1710 ANTENNA__747__CLK
*1711 ANTENNA__748__CLK
*1712 ANTENNA__749__CLK
*1713 ANTENNA__750__CLK
*1714 ANTENNA__751__CLK
*1715 ANTENNA__752__CLK
*1716 ANTENNA__753__CLK
*1717 ANTENNA__753__D
*1718 ANTENNA__754__CLK
*1719 ANTENNA__755__CLK
*1720 ANTENNA__756__CLK
*1721 ANTENNA__757__CLK
*1722 ANTENNA__758__CLK
*1723 ANTENNA__759__CLK
*1724 ANTENNA__760__CLK
*1725 ANTENNA__761__CLK
*1726 ANTENNA__887__A
*1727 ANTENNA__888__A
*1728 ANTENNA__901__A
*1729 ANTENNA__902__A
*1730 ANTENNA__903__A
*1731 ANTENNA__905__A
*1732 ANTENNA__906__A
*1733 ANTENNA__907__A
*1734 ANTENNA__908__A
*1735 ANTENNA__909__A
*1736 ANTENNA__910__A
*1737 ANTENNA__911__A
*1738 ANTENNA__913__A
*1739 ANTENNA__914__A
*1740 ANTENNA__915__A
*1741 ANTENNA__916__A
*1742 ANTENNA__917__A
*1743 ANTENNA__918__A
*1744 ANTENNA__919__A
*1745 ANTENNA__920__A
*1746 ANTENNA__921__A
*1747 ANTENNA__922__A
*1748 ANTENNA__923__A
*1749 ANTENNA__924__A
*1750 ANTENNA__925__A
*1751 ANTENNA__926__A
*1752 ANTENNA__927__A
*1753 ANTENNA__930__A
*1754 ANTENNA__931__A
*1755 ANTENNA__932__A
*1756 ANTENNA__933__A
*1757 ANTENNA__934__A
*1758 ANTENNA__935__A
*1759 ANTENNA_clkbuf_0_clk_A
*1760 ANTENNA_clkbuf_1_0_0_clk_A
*1761 ANTENNA_clkbuf_1_1_0_clk_A
*1762 ANTENNA_input100_A
*1763 ANTENNA_input101_A
*1764 ANTENNA_input102_A
*1765 ANTENNA_input103_A
*1766 ANTENNA_input104_A
*1767 ANTENNA_input105_A
*1768 ANTENNA_input106_A
*1769 ANTENNA_input107_A
*1770 ANTENNA_input108_A
*1771 ANTENNA_input10_A
*1772 ANTENNA_input11_A
*1773 ANTENNA_input12_A
*1774 ANTENNA_input13_A